test/data/PFC/cigre_B4_dc_grid.json
{"bus":{"4":{"zone":1,"bus_i":4,"bus_type":2,"vmax":1.1,"source_id":["bus",4],"area":1,"vmin":0.9,"index":4,"va":0.0,"vm":1.0,"base_kv":380.0},"1":{"zone":1,"bus_i":1,"bus_type":1,"vmax":1.1,"source_id":["bus",1],"area":1,"vmin":0.9,"index":1,"va":0.0,"vm":1.0,"base_kv":380.0},"2":{"zone":1,"bus_i":2,"bus_type":3,"vmax":1.1,"source_id":["bus",2],"area":1,"vmin":0.9,"index":2,"va":0.0,"vm":1.0,"base_kv":380.0},"6":{"zone":1,"bus_i":6,"bus_type":2,"vmax":1.1,"source_id":["bus",6],"area":1,"vmin":0.9,"index":6,"va":0.0,"vm":1.0,"base_kv":380.0},"11":{"zone":1,"bus_i":11,"bus_type":2,"vmax":1.1,"source_id":["bus",11],"area":1,"vmin":0.9,"index":11,"va":0.0,"vm":1.0,"base_kv":380.0},"5":{"zone":1,"bus_i":5,"bus_type":2,"vmax":1.1,"source_id":["bus",5],"area":1,"vmin":0.9,"index":5,"va":0.0,"vm":1.0,"base_kv":380.0},"7":{"zone":1,"bus_i":7,"bus_type":2,"vmax":1.1,"source_id":["bus",7],"area":1,"vmin":0.9,"index":7,"va":0.0,"vm":1.0,"base_kv":380.0},"8":{"zone":1,"bus_i":8,"bus_type":2,"vmax":1.1,"source_id":["bus",8],"area":1,"vmin":0.9,"index":8,"va":0.0,"vm":1.0,"base_kv":380.0},"10":{"zone":1,"bus_i":10,"bus_type":1,"vmax":1.1,"source_id":["bus",10],"area":1,"vmin":0.9,"index":10,"va":0.0,"vm":1.0,"base_kv":380.0},"9":{"zone":1,"bus_i":9,"bus_type":2,"vmax":1.1,"source_id":["bus",9],"area":1,"vmin":0.9,"index":9,"va":0.0,"vm":1.0,"base_kv":380.0},"3":{"zone":1,"bus_i":3,"bus_type":1,"vmax":1.1,"source_id":["bus",3],"area":1,"vmin":0.9,"index":3,"va":0.0,"vm":1.0,"base_kv":380.0}},"source_type":"matpower","dcpol":2,"name":"cigreb4dc","dcline":{},"source_version":"2","gen":{"8":{"ncost":0,"qc1max":0.0,"pg":5.0,"model":2,"shutdown":0.0,"startup":0.0,"qc2max":0.0,"ramp_agc":0.0,"qg":0.0,"gen_bus":11,"pmax":5.0,"ramp_10":0.0,"vg":1.05,"mbase":100.0,"source_id":["gen",8],"mu_pmax":1.0,"pc2":0.0,"index":8,"cost":[],"qmax":1.8,"gen_status":1,"qmin":0.0,"qc1min":0.0,"qc2min":0.0,"pc1":0.0,"ramp_q":0.0,"ramp_30":0.0,"pmin":0.0,"apf":0.0},"4":{"ncost":2,"qc1max":0.0,"pg":10.0,"model":2,"shutdown":0.0,"startup":0.0,"qc2max":0.0,"ramp_agc":0.0,"qg":0.0,"gen_bus":6,"pmax":20.0,"ramp_10":0.0,"vg":1.05,"mbase":100.0,"source_id":["gen",4],"mu_pmax":1.0,"pc2":0.0,"index":4,"cost":[5000.0,0.0],"qmax":3.6,"gen_status":1,"qmin":0.0,"qc1min":0.0,"qc2min":0.0,"pc1":0.0,"ramp_q":0.0,"ramp_30":0.0,"pmin":0.0,"apf":0.0},"1":{"ncost":2,"qc1max":0.0,"pg":20.0,"model":2,"shutdown":0.0,"startup":0.0,"qc2max":0.0,"ramp_agc":0.0,"qg":0.0,"gen_bus":2,"pmax":40.0,"ramp_10":0.0,"vg":1.05,"mbase":100.0,"source_id":["gen",1],"mu_pmax":1.0,"pc2":0.0,"index":1,"cost":[5000.0,0.0],"qmax":7.2,"gen_status":1,"qmin":0.0,"qc1min":0.0,"qc2min":0.0,"pc1":0.0,"ramp_q":0.0,"ramp_30":0.0,"pmin":0.0,"apf":0.0},"5":{"ncost":0,"qc1max":0.0,"pg":5.0,"model":2,"shutdown":0.0,"startup":0.0,"qc2max":0.0,"ramp_agc":0.0,"qg":0.0,"gen_bus":7,"pmax":5.0,"ramp_10":0.0,"vg":1.05,"mbase":100.0,"source_id":["gen",5],"mu_pmax":1.0,"pc2":0.0,"index":5,"cost":[],"qmax":1.8,"gen_status":1,"qmin":0.0,"qc1min":0.0,"qc2min":0.0,"pc1":0.0,"ramp_q":0.0,"ramp_30":0.0,"pmin":0.0,"apf":0.0},"2":{"ncost":2,"qc1max":0.0,"pg":10.0,"model":2,"shutdown":0.0,"startup":0.0,"qc2max":0.0,"ramp_agc":0.0,"qg":0.0,"gen_bus":4,"pmax":20.0,"ramp_10":0.0,"vg":1.05,"mbase":100.0,"source_id":["gen",2],"mu_pmax":1.0,"pc2":0.0,"index":2,"cost":[5000.0,0.0],"qmax":3.6,"gen_status":1,"qmin":0.0,"qc1min":0.0,"qc2min":0.0,"pc1":0.0,"ramp_q":0.0,"ramp_30":0.0,"pmin":0.0,"apf":0.0},"6":{"ncost":0,"qc1max":0.0,"pg":5.0,"model":2,"shutdown":0.0,"startup":0.0,"qc2max":0.0,"ramp_agc":0.0,"qg":0.0,"gen_bus":8,"pmax":5.0,"ramp_10":0.0,"vg":1.05,"mbase":100.0,"source_id":["gen",6],"mu_pmax":1.0,"pc2":0.0,"index":6,"cost":[],"qmax":1.8,"gen_status":1,"qmin":0.0,"qc1min":0.0,"qc2min":0.0,"pc1":0.0,"ramp_q":0.0,"ramp_30":0.0,"pmin":0.0,"apf":0.0},"7":{"ncost":0,"qc1max":0.0,"pg":10.0,"model":2,"shutdown":0.0,"startup":0.0,"qc2max":0.0,"ramp_agc":0.0,"qg":0.0,"gen_bus":9,"pmax":10.0,"ramp_10":0.0,"vg":1.05,"mbase":100.0,"source_id":["gen",7],"mu_pmax":1.0,"pc2":0.0,"index":7,"cost":[],"qmax":3.6,"gen_status":1,"qmin":0.0,"qc1min":0.0,"qc2min":0.0,"pc1":0.0,"ramp_q":0.0,"ramp_30":0.0,"pmin":0.0,"apf":0.0},"3":{"ncost":2,"qc1max":0.0,"pg":10.0,"model":2,"shutdown":0.0,"startup":0.0,"qc2max":0.0,"ramp_agc":0.0,"qg":0.0,"gen_bus":5,"pmax":20.0,"ramp_10":0.0,"vg":1.05,"mbase":100.0,"source_id":["gen",3],"mu_pmax":1.0,"pc2":0.0,"index":3,"cost":[5000.0,0.0],"qmax":3.6,"gen_status":1,"qmin":0.0,"qc1min":0.0,"qc2min":0.0,"pc1":0.0,"ramp_q":0.0,"ramp_30":0.0,"pmin":0.0,"apf":0.0}},"branch":{"8":{"br_r":0.020047562,"rate_a":1.795703675,"shift":0.0,"rate_b":1.795703675,"br_x":0.018871969,"rate_c":1.795703675,"g_to":0.0,"g_fr":0.0,"source_id":["branch",8],"b_fr":0.151671872,"f_bus":7,"br_status":1,"t_bus":8,"b_to":0.151671872,"index":8,"angmin":-0.5235987755982988,"angmax":0.5235987755982988,"transformer":false,"tap":1.0,"pf":7.15},"4":{"br_r":0.002770083,"rate_a":23.398274360000002,"shift":0.0,"rate_b":23.398274360000002,"br_x":0.037124749,"rate_c":23.398274360000002,"g_to":0.0,"g_fr":0.0,"source_id":["branch",4],"b_fr":0.306211036,"f_bus":3,"br_status":1,"t_bus":5,"b_to":0.306211036,"index":4,"angmin":-0.5235987755982988,"angmax":0.5235987755982988,"transformer":false,"tap":1.0,"pf":35.55},"1":{"br_r":0.002770083,"rate_a":23.398274360000002,"shift":0.0,"rate_b":23.398274360000002,"br_x":0.037124749,"rate_c":23.398274360000002,"g_to":0.0,"g_fr":0.0,"source_id":["branch",1],"b_fr":0.306211036,"f_bus":1,"br_status":1,"t_bus":2,"b_to":0.306211036,"index":1,"angmin":-0.5235987755982988,"angmax":0.5235987755982988,"transformer":false,"tap":1.0,"pf":35.55},"5":{"br_r":0.002770083,"rate_a":23.398274360000002,"shift":0.0,"rate_b":23.398274360000002,"br_x":0.037124749,"rate_c":23.398274360000002,"g_to":0.0,"g_fr":0.0,"source_id":["branch",5],"b_fr":0.306211036,"f_bus":3,"br_status":1,"t_bus":6,"b_to":0.306211036,"index":5,"angmin":-0.5235987755982988,"angmax":0.5235987755982988,"transformer":false,"tap":1.0,"pf":35.55},"2":{"br_r":0.002770083,"rate_a":23.398274360000002,"shift":0.0,"rate_b":23.398274360000002,"br_x":0.037124749,"rate_c":23.398274360000002,"g_to":0.0,"g_fr":0.0,"source_id":["branch",2],"b_fr":0.306211036,"f_bus":1,"br_status":1,"t_bus":2,"b_to":0.306211036,"index":2,"angmin":-0.5235987755982988,"angmax":0.5235987755982988,"transformer":false,"tap":1.0,"pf":35.55},"6":{"br_r":0.002770083,"rate_a":23.398274360000002,"shift":0.0,"rate_b":23.398274360000002,"br_x":0.037124749,"rate_c":23.398274360000002,"g_to":0.0,"g_fr":0.0,"source_id":["branch",6],"b_fr":0.306211036,"f_bus":4,"br_status":1,"t_bus":6,"b_to":0.306211036,"index":6,"angmin":-0.5235987755982988,"angmax":0.5235987755982988,"transformer":false,"tap":1.0,"pf":35.55},"7":{"br_r":0.002770083,"rate_a":23.398274360000002,"shift":0.0,"rate_b":23.398274360000002,"br_x":0.037124749,"rate_c":23.398274360000002,"g_to":0.0,"g_fr":0.0,"source_id":["branch",7],"b_fr":0.306211036,"f_bus":5,"br_status":1,"t_bus":6,"b_to":0.306211036,"index":7,"angmin":-0.5235987755982988,"angmax":0.5235987755982988,"transformer":false,"tap":1.0,"pf":35.55},"3":{"br_r":0.002770083,"rate_a":23.398274360000002,"shift":0.0,"rate_b":23.398274360000002,"br_x":0.037124749,"rate_c":23.398274360000002,"g_to":0.0,"g_fr":0.0,"source_id":["branch",3],"b_fr":0.306211036,"f_bus":3,"br_status":1,"t_bus":4,"b_to":0.306211036,"index":3,"angmin":-0.5235987755982988,"angmax":0.5235987755982988,"transformer":false,"tap":1.0,"pf":35.55}},"variant":"base","storage":{},"switch":{},"baseMVA":100.0,"convdc":{"4":{"Vdcset":1,"Pdcset":1200,"LossA":1.103,"rtf":7.13994e-5,"xc":0.001249306,"LossB":0.887,"tm":1,"LossCrec":2.885,"control_vdc_mode":1,"type_ac":1,"bf":13.608978,"ratio":0,"reactor":0,"Vmmax":1.1,"rc":4.16435e-5,"busdc_i":12,"droop":10.0,"transformer":0,"LossCinv":2.885,"dVdcset":0,"Pacmax":1200,"source_id":["convdc",4],"type_link":2,"Q_g":0,"control_vdc":1,"basekVac":380,"index":4,"Vmmin":0.9,"Pacrated":1200,"Vtar":1,"filter":0,"xtf":0.00249898,"Imax":1823.211376,"Qacrated":1200,"status":1,"islcc":0,"Qacmin":-1200,"conv_id":4,"control_pdc":1,"busac_i":6,"Qacmax":1200,"type_dc":1,"Pacmin":-1200,"P_g":1200},"1":{"Vdcset":1,"Pdcset":800,"LossA":1.103,"rtf":7.13994e-5,"xc":0.001249306,"LossB":0.887,"tm":1,"LossCrec":2.885,"control_vdc_mode":3,"type_ac":1,"bf":13.608978,"ratio":0,"reactor":0,"Vmmax":1.1,"rc":4.16435e-5,"busdc_i":1,"droop":0.005,"transformer":0,"LossCinv":2.885,"dVdcset":0,"Pacmax":800,"source_id":["convdc",1],"type_link":2,"Q_g":0,"control_vdc":1,"basekVac":380,"index":1,"Vmmin":0.9,"Pacrated":800,"Vtar":1,"filter":0,"xtf":0.00249898,"Imax":1215.474251,"Qacrated":800,"status":1,"islcc":0,"Qacmin":-800,"conv_id":1,"control_pdc":0,"busac_i":2,"Qacmax":800,"type_dc":1,"Pacmin":-800,"P_g":800},"2":{"Vdcset":1,"Pdcset":800,"LossA":1.103,"rtf":7.13994e-5,"xc":0.001249306,"LossB":0.887,"tm":1,"LossCrec":2.885,"control_vdc_mode":2,"type_ac":1,"bf":13.608978,"ratio":0,"reactor":0,"Vmmax":1.1,"rc":4.16435e-5,"busdc_i":2,"droop":0.005,"transformer":0,"LossCinv":2.885,"dVdcset":0,"Pacmax":800,"source_id":["convdc",2],"type_link":2,"Q_g":0,"control_vdc":0,"basekVac":145,"index":2,"Vmmin":0.9,"Pacrated":800,"Vtar":1,"filter":0,"xtf":0.00249898,"Imax":3185.380796,"Qacrated":800,"status":1,"islcc":0,"Qacmin":-800,"conv_id":2,"control_pdc":1,"busac_i":7,"Qacmax":800,"type_dc":1,"Pacmin":-800,"P_g":800},"6":{"Vdcset":1,"Pdcset":800,"LossA":1.103,"rtf":7.13994e-5,"xc":0.001249306,"LossB":0.887,"tm":1,"LossCrec":2.885,"control_vdc_mode":2,"type_ac":1,"bf":13.608978,"ratio":0,"reactor":0,"Vmmax":1.1,"rc":4.16435e-5,"busdc_i":15,"droop":0.005,"transformer":0,"LossCinv":2.885,"dVdcset":0,"Pacmax":800,"source_id":["convdc",6],"type_link":2,"Q_g":0,"control_vdc":0,"basekVac":145,"index":6,"Vmmin":0.9,"Pacrated":800,"Vtar":1,"filter":0,"xtf":0.00249898,"Imax":3185.380796,"Qacrated":800,"status":1,"islcc":0,"Qacmin":-800,"conv_id":6,"control_pdc":1,"busac_i":11,"Qacmax":800,"type_dc":1,"Pacmin":-800,"P_g":800},"11":{"Vdcset":1,"Pdcset":1600,"LossA":1.103,"rtf":7.13994e-5,"xc":0.001249306,"LossB":0.887,"tm":1,"LossCrec":2.885,"control_vdc_mode":2,"type_ac":1,"bf":13.608978,"ratio":0,"reactor":0,"Vmmax":1.1,"rc":4.16435e-5,"busdc_i":5,"droop":0.005,"transformer":0,"LossCinv":2.885,"dVdcset":0,"Pacmax":1600,"source_id":["convdc",11],"type_link":2,"Q_g":0,"control_vdc":0,"basekVac":145,"index":11,"Vmmin":0.9,"Pacrated":1600,"Vtar":1,"filter":0,"xtf":0.00249898,"Imax":6370.761591,"Qacrated":1600,"status":1,"islcc":0,"Qacmin":-1600,"conv_id":11,"control_pdc":1,"busac_i":9,"Qacmax":1600,"type_dc":1,"Pacmin":-1600,"P_g":1600},"5":{"Vdcset":1,"Pdcset":200,"LossA":1.103,"rtf":7.13994e-5,"xc":0.001249306,"LossB":0.887,"tm":1,"LossCrec":2.885,"control_vdc_mode":2,"type_ac":1,"bf":13.608978,"ratio":0,"reactor":0,"Vmmax":1.1,"rc":4.16435e-5,"busdc_i":14,"droop":0.005,"transformer":0,"LossCinv":2.885,"dVdcset":0,"Pacmax":200,"source_id":["convdc",5],"type_link":2,"Q_g":0,"control_vdc":0,"basekVac":145,"index":5,"Vmmin":0.9,"Pacrated":200,"Vtar":1,"filter":0,"xtf":0.00249898,"Imax":796.3451989,"Qacrated":200,"status":1,"islcc":0,"Qacmin":-200,"conv_id":5,"control_pdc":1,"busac_i":10,"Qacmax":200,"type_dc":1,"Pacmin":-200,"P_g":200},"7":{"Vdcset":1,"Pdcset":2400,"LossA":1.103,"rtf":7.13994e-5,"xc":0.001249306,"LossB":0.887,"tm":1,"LossCrec":2.885,"control_vdc_mode":1,"type_ac":1,"bf":13.608978,"ratio":0,"reactor":0,"Vmmax":1.1,"rc":4.16435e-5,"busdc_i":3,"droop":10.0,"transformer":0,"LossCinv":2.885,"dVdcset":0,"Pacmax":2400,"source_id":["convdc",7],"type_link":2,"Q_g":0,"control_vdc":1,"basekVac":380,"index":7,"Vmmin":0.9,"Pacrated":2400,"Vtar":1,"filter":0,"xtf":0.00249898,"Imax":3646.422753,"Qacrated":2400,"status":1,"islcc":0,"Qacmin":-2400,"conv_id":7,"control_pdc":1,"busac_i":2,"Qacmax":2400,"type_dc":1,"Pacmin":-2400,"P_g":2400},"8":{"Vdcset":1,"Pdcset":2400,"LossA":1.103,"rtf":7.13994e-5,"xc":0.001249306,"LossB":0.887,"tm":1,"LossCrec":2.885,"control_vdc_mode":1,"type_ac":1,"bf":13.608978,"ratio":0,"reactor":0,"Vmmax":1.1,"rc":4.16435e-5,"busdc_i":7,"droop":10.0,"transformer":0,"LossCinv":2.885,"dVdcset":0,"Pacmax":2400,"source_id":["convdc",8],"type_link":2,"Q_g":0,"control_vdc":1,"basekVac":380,"index":8,"Vmmin":0.9,"Pacrated":2400,"Vtar":1,"filter":0,"xtf":0.00249898,"Imax":3646.422753,"Qacrated":2400,"status":1,"islcc":0,"Qacmin":-2400,"conv_id":8,"control_pdc":1,"busac_i":4,"Qacmax":2400,"type_dc":1,"Pacmin":-2400,"P_g":2400},"10":{"Vdcset":1,"Pdcset":800,"LossA":1.103,"rtf":7.13994e-5,"xc":0.001249306,"LossB":0.887,"tm":1,"LossCrec":2.885,"control_vdc_mode":2,"type_ac":1,"bf":13.608978,"ratio":0,"reactor":0,"Vmmax":1.1,"rc":4.16435e-5,"busdc_i":4,"droop":0.005,"transformer":0,"LossCinv":2.885,"dVdcset":0,"Pacmax":800,"source_id":["convdc",10],"type_link":2,"Q_g":0,"control_vdc":0,"basekVac":380,"index":10,"Vmmin":0.9,"Pacrated":800,"Vtar":1,"filter":0,"xtf":0.00249898,"Imax":1215.474251,"Qacrated":800,"status":1,"islcc":0,"Qacmin":-800,"conv_id":10,"control_pdc":1,"busac_i":8,"Qacmax":800,"type_dc":1,"Pacmin":-800,"P_g":800},"9":{"Vdcset":1,"Pdcset":2400,"LossA":1.103,"rtf":7.13994e-5,"xc":0.001249306,"LossB":0.887,"tm":1,"LossCrec":2.885,"control_vdc_mode":1,"type_ac":1,"bf":13.608978,"ratio":0,"reactor":0,"Vmmax":1.1,"rc":4.16435e-5,"busdc_i":10,"droop":10.0,"transformer":0,"LossCinv":2.885,"dVdcset":0,"Pacmax":2400,"source_id":["convdc",9],"type_link":2,"Q_g":0,"control_vdc":1,"basekVac":145,"index":9,"Vmmin":0.9,"Pacrated":2400,"Vtar":1,"filter":0,"xtf":0.00249898,"Imax":9556.142387,"Qacrated":2400,"status":1,"islcc":0,"Qacmin":-2400,"conv_id":9,"control_pdc":1,"busac_i":5,"Qacmax":2400,"type_dc":1,"Pacmin":-2400,"P_g":2400},"3":{"Vdcset":1,"Pdcset":800,"LossA":1.103,"rtf":7.13994e-5,"xc":0.001249306,"LossB":0.887,"tm":1,"LossCrec":2.885,"control_vdc_mode":1,"type_ac":1,"bf":13.608978,"ratio":0,"reactor":0,"Vmmax":1.1,"rc":4.16435e-5,"busdc_i":11,"droop":10.0,"transformer":0,"LossCinv":2.885,"dVdcset":0,"Pacmax":800,"source_id":["convdc",3],"type_link":2,"Q_g":0,"control_vdc":1,"basekVac":380,"index":3,"Vmmin":0.9,"Pacrated":800,"Vtar":1,"filter":0,"xtf":0.00249898,"Imax":1215.474251,"Qacrated":800,"status":1,"islcc":0,"Qacmin":-800,"conv_id":3,"control_pdc":1,"busac_i":5,"Qacmax":800,"type_dc":1,"Pacmin":-800,"P_g":800}},"othergen":{"8":{"source_id":["othergen",8],"type":2,"index":8},"4":{"source_id":["othergen",4],"type":1,"index":4},"1":{"source_id":["othergen",1],"type":1,"index":1},"5":{"source_id":["othergen",5],"type":2,"index":5},"2":{"source_id":["othergen",2],"type":1,"index":2},"6":{"source_id":["othergen",6],"type":2,"index":6},"7":{"source_id":["othergen",7],"type":2,"index":7},"3":{"source_id":["othergen",3],"type":1,"index":3}},"per_unit":true,"shunt":{},"load":{"4":{"source_id":["bus",6],"load_bus":6,"status":1,"qd":0.0,"pd":19.0,"index":4},"1":{"source_id":["bus",2],"load_bus":2,"status":1,"qd":0.0,"pd":10.0,"index":1},"5":{"source_id":["bus",10],"load_bus":10,"status":1,"qd":0.0,"pd":1.0,"index":5},"2":{"source_id":["bus",4],"load_bus":4,"status":1,"qd":0.0,"pd":22.0,"index":2},"3":{"source_id":["bus",5],"load_bus":5,"status":1,"qd":0.0,"pd":23.0,"index":3}},"branchdc":{"4":{"c":0,"r":0.0114,"dcpoles":2,"status":1,"rateB":700.0,"fbusdc":3,"source_id":["branchdc",4],"rateA":700.0,"l":0,"index":4,"rateC":700.0,"tbusdc":7},"1":{"c":0,"r":0.00475,"dcpoles":1,"status":1,"rateB":392.4,"fbusdc":1,"source_id":["branchdc",1],"rateA":392.4,"l":0,"index":1,"rateC":392.4,"tbusdc":2},"12":{"c":0,"r":0.00475,"dcpoles":1,"status":1,"rateB":392.4,"fbusdc":11,"source_id":["branchdc",12],"rateA":392.4,"l":0,"index":12,"rateC":392.4,"tbusdc":12},"2":{"c":0,"r":0.00475,"dcpoles":2,"status":1,"rateB":453.0,"fbusdc":3,"source_id":["branchdc",2],"rateA":453.0,"l":0,"index":2,"rateC":453.0,"tbusdc":4},"6":{"c":0,"r":0.007125,"dcpoles":2,"status":1,"rateB":453.0,"fbusdc":4,"source_id":["branchdc",6],"rateA":453.0,"l":0,"index":6,"rateC":453.0,"tbusdc":5},"11":{"c":0,"r":0.007125,"dcpoles":2,"status":1,"rateB":453.0,"fbusdc":6,"source_id":["branchdc",11],"rateA":453.0,"l":0,"index":11,"rateC":453.0,"tbusdc":10},"13":{"c":0,"r":0.002375,"dcpoles":1,"status":1,"rateB":392.4,"fbusdc":12,"source_id":["branchdc",13],"rateA":392.4,"l":0,"index":13,"rateC":392.4,"tbusdc":13},"5":{"c":0,"r":0.0114,"dcpoles":2,"status":1,"rateB":700.0,"fbusdc":3,"source_id":["branchdc",5],"rateA":700.0,"l":0,"index":5,"rateC":700.0,"tbusdc":7},"15":{"c":0,"r":0.00475,"dcpoles":1,"status":1,"rateB":392.4,"fbusdc":14,"source_id":["branchdc",15],"rateA":392.4,"l":0,"index":15,"rateC":392.4,"tbusdc":15},"16":{"c":0,"r":0.00012,"dcpoles":1,"status":1,"rateB":2000.0,"fbusdc":7,"source_id":["branchdc",16],"rateA":2000.0,"l":0,"index":16,"rateC":2000.0,"tbusdc":8},"14":{"c":0,"r":0.002375,"dcpoles":1,"status":1,"rateB":392.4,"fbusdc":13,"source_id":["branchdc",14],"rateA":392.4,"l":0,"index":14,"rateC":392.4,"tbusdc":15},"7":{"c":0,"r":0.0057,"dcpoles":2,"status":1,"rateB":700.0,"fbusdc":6,"source_id":["branchdc",7],"rateA":700.0,"l":0,"index":7,"rateC":700.0,"tbusdc":7},"8":{"c":0,"r":0.00475,"dcpoles":2,"status":1,"rateB":453.0,"fbusdc":8,"source_id":["branchdc",8],"rateA":453.0,"l":0,"index":8,"rateC":453.0,"tbusdc":9},"17":{"c":0,"r":0.00012,"dcpoles":1,"status":1,"rateB":1000.0,"fbusdc":9,"source_id":["branchdc",17],"rateA":1000.0,"l":0,"index":17,"rateC":1000.0,"tbusdc":14},"10":{"c":0,"r":0.007125,"dcpoles":2,"status":1,"rateB":453.0,"fbusdc":6,"source_id":["branchdc",10],"rateA":453.0,"l":0,"index":10,"rateC":453.0,"tbusdc":10},"9":{"c":0,"r":0.00475,"dcpoles":2,"status":1,"rateB":453.0,"fbusdc":5,"source_id":["branchdc",9],"rateA":453.0,"l":0,"index":9,"rateC":453.0,"tbusdc":9},"3":{"c":0,"r":0.01425,"dcpoles":2,"status":1,"rateB":700.0,"fbusdc":3,"source_id":["branchdc",3],"rateA":700.0,"l":0,"index":3,"rateC":700.0,"tbusdc":6}},"busdc":{"4":{"Vdc":1,"Cdc":0,"basekVdc":400,"source_id":["busdc",4],"area":1,"busdc_i":4,"grid":1,"index":4,"Vdcmax":1.1,"Vdcmin":0.9,"Pdc":0},"1":{"Vdc":1,"Cdc":0,"basekVdc":200,"source_id":["busdc",1],"area":1,"busdc_i":1,"grid":1,"index":1,"Vdcmax":1.1,"Vdcmin":0.9,"Pdc":0},"12":{"Vdc":1,"Cdc":0,"basekVdc":200,"source_id":["busdc",12],"area":1,"busdc_i":12,"grid":1,"index":12,"Vdcmax":1.1,"Vdcmin":0.9,"Pdc":0},"2":{"Vdc":1,"Cdc":0,"basekVdc":200,"source_id":["busdc",2],"area":1,"busdc_i":2,"grid":1,"index":2,"Vdcmax":1.1,"Vdcmin":0.9,"Pdc":0},"6":{"Vdc":1,"Cdc":0,"basekVdc":400,"source_id":["busdc",6],"area":1,"busdc_i":6,"grid":1,"index":6,"Vdcmax":1.1,"Vdcmin":0.9,"Pdc":0},"11":{"Vdc":1,"Cdc":0,"basekVdc":200,"source_id":["busdc",11],"area":1,"busdc_i":11,"grid":1,"index":11,"Vdcmax":1.1,"Vdcmin":0.9,"Pdc":0},"13":{"Vdc":1,"Cdc":0,"basekVdc":200,"source_id":["busdc",13],"area":1,"busdc_i":13,"grid":1,"index":13,"Vdcmax":1.1,"Vdcmin":0.9,"Pdc":0},"5":{"Vdc":1,"Cdc":0,"basekVdc":400,"source_id":["busdc",5],"area":1,"busdc_i":5,"grid":1,"index":5,"Vdcmax":1.1,"Vdcmin":0.9,"Pdc":0},"15":{"Vdc":1,"Cdc":0,"basekVdc":200,"source_id":["busdc",15],"area":1,"busdc_i":15,"grid":1,"index":15,"Vdcmax":1.1,"Vdcmin":0.9,"Pdc":0},"14":{"Vdc":1,"Cdc":0,"basekVdc":200,"source_id":["busdc",14],"area":1,"busdc_i":14,"grid":1,"index":14,"Vdcmax":1.1,"Vdcmin":0.9,"Pdc":0},"7":{"Vdc":1,"Cdc":0,"basekVdc":400,"source_id":["busdc",7],"area":1,"busdc_i":7,"grid":1,"index":7,"Vdcmax":1.1,"Vdcmin":0.9,"Pdc":0},"8":{"Vdc":1,"Cdc":0,"basekVdc":400,"source_id":["busdc",8],"area":1,"busdc_i":8,"grid":1,"index":8,"Vdcmax":1.1,"Vdcmin":0.9,"Pdc":0},"10":{"Vdc":1,"Cdc":0,"basekVdc":400,"source_id":["busdc",10],"area":1,"busdc_i":10,"grid":1,"index":10,"Vdcmax":1.1,"Vdcmin":0.9,"Pdc":0},"9":{"Vdc":1,"Cdc":0,"basekVdc":400,"source_id":["busdc",9],"area":1,"busdc_i":9,"grid":1,"index":9,"Vdcmax":1.1,"Vdcmin":0.9,"Pdc":0},"3":{"Vdc":1,"Cdc":0,"basekVdc":400,"source_id":["busdc",3],"area":1,"busdc_i":3,"grid":1,"index":3,"Vdcmax":1.1,"Vdcmin":0.9,"Pdc":0}}}